
 OpenBabel01151414573D

  5  4  0  0  0  0  0  0  0  0999 V2000
   -4.7562   -2.1379   -0.0621 C   0  0  0  0  0  0  0  0  0  0  0  0
   -3.5499   -1.5863   -0.3069 O   0  0  0  0  0  0  0  0  0  0  0  0
   -3.4592   -0.6382   -0.4791 H   0  0  0  0  0  0  0  0  0  0  0  0
   -5.7613   -1.4449   -0.0536 O   0  0  0  0  0  0  0  0  0  0  0  0
   -4.8333   -3.2026    0.1282 H   0  0  0  0  0  0  0  0  0  0  0  0
  1  2  1  0  0  0  0
  1  5  1  0  0  0  0
  2  3  1  0  0  0  0
  4  1  2  0  0  0  0
M  END
