
 OpenBabel05012519333D

 32 31  0  0  0  0  0  0  0  0999 V2000
   -0.7730   -2.3558   -0.9236 C   0  0  0  0  0  0  0  0  0  0  0  0
   -0.4279   -0.8923   -0.5637 C   0  0  0  0  0  0  0  0  0  0  0  0
   -1.1648   -0.3334    0.6685 C   0  0  0  0  0  0  0  0  0  0  0  0
   -2.5950    0.1867    0.4260 C   0  0  0  0  0  0  0  0  0  0  0  0
    0.5160   -3.1846   -1.1562 C   0  0  0  0  0  0  0  0  0  0  0  0
   -1.7351   -2.4263   -2.1280 C   0  0  0  0  0  0  0  0  0  0  0  0
   -2.9222    1.2882    1.4437 C   0  0  0  0  0  0  0  0  0  0  0  0
   -3.6588   -0.9047    0.5490 C   0  0  0  0  0  0  0  0  0  0  0  0
    1.3346   -2.7900   -2.3810 C   0  0  0  0  0  0  0  0  0  0  0  0
   -2.4445   -3.7709   -2.2247 C   0  0  0  0  0  0  0  0  0  0  0  0
   -1.2717   -2.8087   -0.0559 H   0  0  0  0  0  0  0  0  0  0  0  0
    0.6410   -0.8297   -0.3212 H   0  0  0  0  0  0  0  0  0  0  0  0
   -0.5745   -0.2283   -1.4250 H   0  0  0  0  0  0  0  0  0  0  0  0
   -0.5535    0.5067    1.0248 H   0  0  0  0  0  0  0  0  0  0  0  0
   -1.1560   -1.0698    1.4830 H   0  0  0  0  0  0  0  0  0  0  0  0
   -2.6541    0.6314   -0.5759 H   0  0  0  0  0  0  0  0  0  0  0  0
    0.2630   -4.2482   -1.2337 H   0  0  0  0  0  0  0  0  0  0  0  0
    1.1556   -3.0947   -0.2689 H   0  0  0  0  0  0  0  0  0  0  0  0
   -2.4958   -1.6427   -2.0538 H   0  0  0  0  0  0  0  0  0  0  0  0
   -1.2083   -2.2261   -3.0670 H   0  0  0  0  0  0  0  0  0  0  0  0
   -3.9181    1.7052    1.2606 H   0  0  0  0  0  0  0  0  0  0  0  0
   -2.9013    0.8983    2.4682 H   0  0  0  0  0  0  0  0  0  0  0  0
   -2.2024    2.1106    1.3795 H   0  0  0  0  0  0  0  0  0  0  0  0
   -4.6575   -0.4869    0.3799 H   0  0  0  0  0  0  0  0  0  0  0  0
   -3.6504   -1.3579    1.5465 H   0  0  0  0  0  0  0  0  0  0  0  0
   -3.5198   -1.7050   -0.1757 H   0  0  0  0  0  0  0  0  0  0  0  0
    0.8314   -3.0819   -3.3074 H   0  0  0  0  0  0  0  0  0  0  0  0
    1.5272   -1.7140   -2.4153 H   0  0  0  0  0  0  0  0  0  0  0  0
    2.3022   -3.3029   -2.3641 H   0  0  0  0  0  0  0  0  0  0  0  0
   -3.1476   -3.7674   -3.0631 H   0  0  0  0  0  0  0  0  0  0  0  0
   -1.7383   -4.5910   -2.3816 H   0  0  0  0  0  0  0  0  0  0  0  0
   -3.0135   -3.9774   -1.3117 H   0  0  0  0  0  0  0  0  0  0  0  0
  1  2  1  0  0  0  0
  1  5  1  0  0  0  0
  1  6  1  0  0  0  0
  1 11  1  0  0  0  0
  2  3  1  0  0  0  0
  2 12  1  0  0  0  0
  2 13  1  0  0  0  0
  3  4  1  0  0  0  0
  3 14  1  0  0  0  0
  3 15  1  0  0  0  0
  4  7  1  0  0  0  0
  4  8  1  0  0  0  0
  4 16  1  0  0  0  0
  5  9  1  0  0  0  0
  5 17  1  0  0  0  0
  5 18  1  0  0  0  0
  6 10  1  0  0  0  0
  6 19  1  0  0  0  0
  6 20  1  0  0  0  0
  7 21  1  0  0  0  0
  7 22  1  0  0  0  0
  7 23  1  0  0  0  0
  8 24  1  0  0  0  0
  8 25  1  0  0  0  0
  8 26  1  0  0  0  0
  9 27  1  0  0  0  0
  9 28  1  0  0  0  0
  9 29  1  0  0  0  0
 10 30  1  0  0  0  0
 10 31  1  0  0  0  0
 10 32  1  0  0  0  0
M  END
