
 OpenBabel05022522163D

 15 14  0  0  1  0  0  0  0  0999 V2000
   -2.7597   -0.5802    0.6375 C   0  0  0  0  0  0  0  0  0  0  0  0
   -2.0191   -0.2871   -0.6263 C   0  0  0  0  0  0  0  0  0  0  0  0
   -0.7583    0.1644   -0.7452 C   0  0  0  0  0  0  0  0  0  0  0  0
    0.2649    0.4666    0.3187 C   0  0  1  0  0  0  0  0  0  0  0  0
    1.1697    0.8213   -0.1883 H   0  0  0  0  0  0  0  0  0  0  0  0
   -0.2650    1.8289    1.3405 Cl  0  0  0  0  0  0  0  0  0  0  0  0
    0.6556   -0.7286    1.1785 C   0  0  0  0  0  0  0  0  0  0  0  0
   -2.7934    0.2907    1.2970 H   0  0  0  0  0  0  0  0  0  0  0  0
   -3.7961   -0.8438    0.3998 H   0  0  0  0  0  0  0  0  0  0  0  0
   -2.3229   -1.4317    1.1649 H   0  0  0  0  0  0  0  0  0  0  0  0
   -2.5878   -0.4453   -1.5423 H   0  0  0  0  0  0  0  0  0  0  0  0
   -0.3967    0.3350   -1.7596 H   0  0  0  0  0  0  0  0  0  0  0  0
    0.9642   -1.5740    0.5536 H   0  0  0  0  0  0  0  0  0  0  0  0
    1.5010   -0.4748    1.8282 H   0  0  0  0  0  0  0  0  0  0  0  0
   -0.1613   -1.0656    1.8231 H   0  0  0  0  0  0  0  0  0  0  0  0
  1  2  1  0  0  0  0
  1  8  1  0  0  0  0
  1  9  1  0  0  0  0
  1 10  1  0  0  0  0
  2  3  2  0  0  0  0
  2 11  1  0  0  0  0
  3  4  1  0  0  0  0
  3 12  1  0  0  0  0
  4  5  1  6  0  0  0
  4  6  1  0  0  0  0
  4  7  1  0  0  0  0
  7 13  1  0  0  0  0
  7 14  1  0  0  0  0
  7 15  1  0  0  0  0
M  END
